version 2
1
9
.tran 100m 3.6k{return}{return}{return}.kicad adjustpaths{return}.save all{return}.probe alli
3
1
V(Net-_R5-Pad1_)
 
1
V(TempCFC)
 
1
V(TempJacket)
 
