version 2
1
9
.tran 100m 360{return}.kicad adjustpaths{return}.save all{return}.probe alli
0
