version 2
5
9
.tran 1 36k 0{return}.kicad adjustpaths{return}.save all{return}.probe alli
0
0
{return}.kicad adjustpaths{return}.save all{return}.probe alli
0
9
.tran 100m 360{return}.kicad adjustpaths{return}.save all{return}.probe alli
0
0
{return}.kicad adjustpaths{return}.save all{return}.probe alli
0
9
.tran 100m 360{return}.kicad adjustpaths{return}.save all{return}.probe alli
0
