version 2
1
9
.tran 1 36k -1{return}.kicad adjustpaths{return}.save all{return}.probe alli
3
1
V(TempCFC)
 
1
V(TempIn)
 
1
V(TempJacket)
 
